LAMMPS (22 Jul 2025)
# --- Initialization ---
units           metal
dimension       3
boundary        p p p
atom_style      atomic

# --- Atom Information ---
region          box block 0 80 0 80 0 80
create_box      1 box
Created orthogonal box = (0 0 0) to (80 80 80)
create_atoms    1 random 200 12345 NULL
Created 200 atoms
mass            1 39.95

# --- Lennard-Jones Potential ---
pair_style      lj/cut 2.5
# Argon: epsilon=0.01032, sigma=3.405
pair_coeff      1 1 0.01032 3.405 2.5
minimize 1.0e-4 1.0e-6 100 1000
Generated 0 of 0 mixed pair_coeff terms from geometric mixing rule
Step          Temp          E_pair         E_mol          TotEng         Press
0   0              139149.61      0              139149.61      1742350.2
Loop time of 9.1628e-05 on 1 procs for 8 steps with 200 atoms

Minimization stats:
  Stopping criterion = quadratic factors are zero
  Energy initial, next-to-last, final =
  Force two-norm initial, final = 2128276.9 56.520092
  Force max component initial, final = 1338750.6 20.563712
  Final line search alpha, max atom move = 0.0048629354 0.1
  Iterations, force evaluations = 8 10

velocity all create 300 4928459 rot yes dist gaussian

# --- Neighbor list ---
neighbor        2.0 bin

timestep 0.001
thermo 100
thermo_style custom step pe etotal press temp

compute ke all ke/atom
dump during all custom 1000 dump.during id type x y z vx vy vz c_ke

# --- EQUILIBRATION (gas phase) ---
fix 1 all npt temp 300.0 300.0 $(10000.0*dt) iso 3.0 3.0 $(1000.0*dt)
fix 1 all npt temp 300.0 300.0 10 iso 3.0 3.0 $(1000.0*dt)
fix 1 all npt temp 300.0 300.0 10 iso 3.0 3.0 1
run 100000
Generated 0 of 0 mixed pair_coeff terms from geometric mixing rule
Step         PotEng         TotEng         Press           Temp
8   12.593984      20.310814      181.95025      300
Averages over the last 501 of 1002 rows, steps 50100 to 100008:
PotEng TotEng Press Temp
0 7.78101 2.98677 302.495
Loop time of 1.70419 on 1 procs for 100000 steps with 200 atoms

# --- COOLING (Condensation) ---
unfix 1
fix 1 all npt temp 100.0 50.0 $(10000.0*dt) iso 3.0 3.0 $(1000.0*dt)
fix 1 all npt temp 100.0 50.0 10 iso 3.0 3.0 $(1000.0*dt)
fix 1 all npt temp 100.0 50.0 10 iso 3.0 3.0 1
run 100000
Generated 0 of 0 mixed pair_coeff terms from geometric mixing rule
Step         PotEng         TotEng         Press           Temp
100008   0              8.4743415      3.0531636      329.44904
Averages over the last 501 of 1002 rows, steps 150100 to 200008:
PotEng TotEng Press Temp
0.00570266 1.63941 3.06211 63.5121
Loop time of 1.39212 on 1 procs for 100000 steps with 200 atoms

# --- COOLING (Crystallization) ---
unfix 1
fix 1 all npt temp 70.0 1.0 $(10000.0*dt) iso 3.0 3.0 $(1000.0*dt)
fix 1 all npt temp 70.0 1.0 10 iso 3.0 3.0 $(1000.0*dt)
fix 1 all npt temp 70.0 1.0 10 iso 3.0 3.0 1
run 100000
Generated 0 of 0 mixed pair_coeff terms from geometric mixing rule
Step         PotEng         TotEng         Press           Temp
200008   0              1.4385565      3.7434617      55.925413
Averages over the last 501 of 1002 rows, steps 250100 to 300008:
PotEng TotEng Press Temp
0.0170541 0.796573 3.38161 30.3046
Loop time of 1.35347 on 1 procs for 100000 steps with 200 atoms

unfix 1
fix 1 all npt temp 1.0 1.0 $(10000.0*dt) iso 3.0 3.0 $(1000.0*dt)
fix 1 all npt temp 1.0 1.0 10 iso 3.0 3.0 $(1000.0*dt)
fix 1 all npt temp 1.0 1.0 10 iso 3.0 3.0 1
run 100000
Generated 0 of 0 mixed pair_coeff terms from geometric mixing rule
Step         PotEng         TotEng         Press           Temp
300008   0              0.35588648     2.5514692      13.835465
Averages over the last 501 of 1002 rows, steps 350100 to 400008:
PotEng TotEng Press Temp
0.00850377 0.145232 3.37639 5.31547
Loop time of 1.4368 on 1 procs for 100000 steps with 200 atoms
